
---------- Begin Simulation Statistics ----------
final_tick                               615179165500                       # Number of ticks from beginning of simulation (restored from checkpoints and never reset)
host_inst_rate                                 769035                       # Simulator instruction rate (inst/s)
host_mem_usage                                 729844                       # Number of bytes of host memory used
host_op_rate                                  1512117                       # Simulator op (including micro ops) rate (op/s)
host_seconds                                   390.10                       # Real time elapsed on the host
host_tick_rate                             1576981066                       # Simulator tick rate (ticks/s)
sim_freq                                 1000000000000                       # Frequency of simulated ticks
sim_insts                                   300000001                       # Number of instructions simulated
sim_ops                                     589875869                       # Number of ops (including micro ops) simulated
sim_seconds                                  0.615179                       # Number of seconds simulated
sim_ticks                                615179165500                       # Number of ticks simulated
system.cpu.Branches                          72079322                       # Number of branches fetched
system.cpu.committedInsts                   300000001                       # Number of instructions committed
system.cpu.committedOps                     589875869                       # Number of ops (including micro ops) committed
system.cpu.idle_fraction                            0                       # Percentage of idle cycles
system.cpu.not_idle_fraction                        1                       # Percentage of non-idle cycles
system.cpu.numCycles                       1230358331                       # number of cpu cycles simulated
system.cpu.numWorkItemsCompleted                    0                       # number of work items this cpu completed
system.cpu.numWorkItemsStarted                      0                       # number of work items this cpu started
system.cpu.num_busy_cycles                 1230358331                       # Number of busy cycles
system.cpu.num_cc_register_reads            364390415                       # number of times the CC registers were read
system.cpu.num_cc_register_writes           181581941                       # number of times the CC registers were written
system.cpu.num_conditional_control_insts     71560089                       # number of instructions that are conditional controls
system.cpu.num_fp_alu_accesses                 595264                       # Number of float alu accesses
system.cpu.num_fp_insts                        595264                       # number of float instructions
system.cpu.num_fp_register_reads               311483                       # number of times the floating registers were read
system.cpu.num_fp_register_writes              301304                       # number of times the floating registers were written
system.cpu.num_func_calls                       10984                       # number of times a function call or return occured
system.cpu.num_idle_cycles                          0                       # Number of idle cycles
system.cpu.num_int_alu_accesses             589864856                       # Number of integer alu accesses
system.cpu.num_int_insts                    589864856                       # number of integer instructions
system.cpu.num_int_register_reads          1322388907                       # number of times the integer registers were read
system.cpu.num_int_register_writes          507280450                       # number of times the integer registers were written
system.cpu.num_load_insts                   129679092                       # Number of load instructions
system.cpu.num_mem_refs                     139896972                       # number of memory refs
system.cpu.num_store_insts                   10217880                       # Number of store instructions
system.cpu.num_vec_alu_accesses                     0                       # Number of vector alu accesses
system.cpu.num_vec_insts                            0                       # number of vector instructions
system.cpu.num_vec_register_reads                   0                       # number of times the vector registers were read
system.cpu.num_vec_register_writes                  0                       # number of times the vector registers were written
system.cpu.op_class::No_OpClass                150634      0.03%      0.03% # Class of executed instruction
system.cpu.op_class::IntAlu                 449964787     76.26%     76.29% # Class of executed instruction
system.cpu.op_class::IntMult                      157      0.00%     76.29% # Class of executed instruction
system.cpu.op_class::IntDiv                      2456      0.00%     76.29% # Class of executed instruction
system.cpu.op_class::FloatAdd                     481      0.00%     76.29% # Class of executed instruction
system.cpu.op_class::FloatCmp                       0      0.00%     76.29% # Class of executed instruction
system.cpu.op_class::FloatCvt                     336      0.00%     76.29% # Class of executed instruction
system.cpu.op_class::FloatMult                      0      0.00%     76.29% # Class of executed instruction
system.cpu.op_class::FloatMultAcc                   0      0.00%     76.29% # Class of executed instruction
system.cpu.op_class::FloatDiv                       0      0.00%     76.29% # Class of executed instruction
system.cpu.op_class::FloatMisc                      0      0.00%     76.29% # Class of executed instruction
system.cpu.op_class::FloatSqrt                      0      0.00%     76.29% # Class of executed instruction
system.cpu.op_class::SimdAdd                     1342      0.00%     76.29% # Class of executed instruction
system.cpu.op_class::SimdAddAcc                     0      0.00%     76.29% # Class of executed instruction
system.cpu.op_class::SimdAlu                     1750      0.00%     76.29% # Class of executed instruction
system.cpu.op_class::SimdCmp                        0      0.00%     76.29% # Class of executed instruction
system.cpu.op_class::SimdCvt                     2190      0.00%     76.29% # Class of executed instruction
system.cpu.op_class::SimdMisc                    1428      0.00%     76.29% # Class of executed instruction
system.cpu.op_class::SimdMult                       0      0.00%     76.29% # Class of executed instruction
system.cpu.op_class::SimdMultAcc                    0      0.00%     76.29% # Class of executed instruction
system.cpu.op_class::SimdShift                    703      0.00%     76.29% # Class of executed instruction
system.cpu.op_class::SimdShiftAcc                   0      0.00%     76.29% # Class of executed instruction
system.cpu.op_class::SimdDiv                        0      0.00%     76.29% # Class of executed instruction
system.cpu.op_class::SimdSqrt                       0      0.00%     76.29% # Class of executed instruction
system.cpu.op_class::SimdFloatAdd                   0      0.00%     76.29% # Class of executed instruction
system.cpu.op_class::SimdFloatAlu                   0      0.00%     76.29% # Class of executed instruction
system.cpu.op_class::SimdFloatCmp                   0      0.00%     76.29% # Class of executed instruction
system.cpu.op_class::SimdFloatCvt                   0      0.00%     76.29% # Class of executed instruction
system.cpu.op_class::SimdFloatDiv                   0      0.00%     76.29% # Class of executed instruction
system.cpu.op_class::SimdFloatMisc                  0      0.00%     76.29% # Class of executed instruction
system.cpu.op_class::SimdFloatMult                  0      0.00%     76.29% # Class of executed instruction
system.cpu.op_class::SimdFloatMultAcc               0      0.00%     76.29% # Class of executed instruction
system.cpu.op_class::SimdFloatSqrt                  0      0.00%     76.29% # Class of executed instruction
system.cpu.op_class::SimdReduceAdd                  0      0.00%     76.29% # Class of executed instruction
system.cpu.op_class::SimdReduceAlu                  0      0.00%     76.29% # Class of executed instruction
system.cpu.op_class::SimdReduceCmp                  0      0.00%     76.29% # Class of executed instruction
system.cpu.op_class::SimdFloatReduceAdd             0      0.00%     76.29% # Class of executed instruction
system.cpu.op_class::SimdFloatReduceCmp             0      0.00%     76.29% # Class of executed instruction
system.cpu.op_class::SimdAes                        0      0.00%     76.29% # Class of executed instruction
system.cpu.op_class::SimdAesMix                     0      0.00%     76.29% # Class of executed instruction
system.cpu.op_class::SimdSha1Hash                   0      0.00%     76.29% # Class of executed instruction
system.cpu.op_class::SimdSha1Hash2                  0      0.00%     76.29% # Class of executed instruction
system.cpu.op_class::SimdSha256Hash                 0      0.00%     76.29% # Class of executed instruction
system.cpu.op_class::SimdSha256Hash2                0      0.00%     76.29% # Class of executed instruction
system.cpu.op_class::SimdShaSigma2                  0      0.00%     76.29% # Class of executed instruction
system.cpu.op_class::SimdShaSigma3                  0      0.00%     76.29% # Class of executed instruction
system.cpu.op_class::SimdPredAlu                    0      0.00%     76.29% # Class of executed instruction
system.cpu.op_class::MemRead                129385276     21.93%     98.22% # Class of executed instruction
system.cpu.op_class::MemWrite                 9925375      1.68%     99.90% # Class of executed instruction
system.cpu.op_class::FloatMemRead              293816      0.05%     99.95% # Class of executed instruction
system.cpu.op_class::FloatMemWrite             292505      0.05%    100.00% # Class of executed instruction
system.cpu.op_class::IprAccess                      0      0.00%    100.00% # Class of executed instruction
system.cpu.op_class::InstPrefetch                   0      0.00%    100.00% # Class of executed instruction
system.cpu.op_class::total                  590023236                       # Class of executed instruction
system.cpu.workload.numSyscalls                    57                       # Number of system calls
system.membus.snoop_filter.hit_multi_requests            0                       # Number of requests hitting in the snoop filter with multiple (>1) holders of the requested data.
system.membus.snoop_filter.hit_multi_snoops            0                       # Number of snoops hitting in the snoop filter with multiple (>1) holders of the requested data.
system.membus.snoop_filter.hit_single_requests       135161                       # Number of requests hitting in the snoop filter with a single holder of the requested data.
system.membus.snoop_filter.hit_single_snoops            0                       # Number of snoops hitting in the snoop filter with a single holder of the requested data.
system.membus.snoop_filter.tot_requests        303545                       # Total number of requests made to the snoop filter.
system.membus.snoop_filter.tot_snoops               0                       # Total number of snoops made to the snoop filter.
system.tol2bus.snoop_filter.hit_multi_requests            1                       # Number of requests hitting in the snoop filter with multiple (>1) holders of the requested data.
system.tol2bus.snoop_filter.hit_multi_snoops            0                       # Number of snoops hitting in the snoop filter with multiple (>1) holders of the requested data.
system.tol2bus.snoop_filter.hit_single_requests      4217881                       # Number of requests hitting in the snoop filter with a single holder of the requested data.
system.tol2bus.snoop_filter.hit_single_snoops          592                       # Number of snoops hitting in the snoop filter with a single holder of the requested data.
system.tol2bus.snoop_filter.tot_requests      8436765                       # Total number of requests made to the snoop filter.
system.tol2bus.snoop_filter.tot_snoops            592                       # Total number of snoops made to the snoop filter.
system.clk_domain.clock                          1000                       # Clock period in ticks
system.cpu.dcache.demand_hits::.cpu.data    135524035                       # number of demand (read+write) hits
system.cpu.dcache.demand_hits::total        135524035                       # number of demand (read+write) hits
system.cpu.dcache.overall_hits::.cpu.data    135560386                       # number of overall hits
system.cpu.dcache.overall_hits::total       135560386                       # number of overall hits
system.cpu.dcache.demand_misses::.cpu.data      4181691                       # number of demand (read+write) misses
system.cpu.dcache.demand_misses::total        4181691                       # number of demand (read+write) misses
system.cpu.dcache.overall_misses::.cpu.data      4217716                       # number of overall misses
system.cpu.dcache.overall_misses::total       4217716                       # number of overall misses
system.cpu.dcache.demand_miss_latency::.cpu.data  66735818500                       # number of demand (read+write) miss cycles
system.cpu.dcache.demand_miss_latency::total  66735818500                       # number of demand (read+write) miss cycles
system.cpu.dcache.overall_miss_latency::.cpu.data  66735818500                       # number of overall miss cycles
system.cpu.dcache.overall_miss_latency::total  66735818500                       # number of overall miss cycles
system.cpu.dcache.demand_accesses::.cpu.data    139705726                       # number of demand (read+write) accesses
system.cpu.dcache.demand_accesses::total    139705726                       # number of demand (read+write) accesses
system.cpu.dcache.overall_accesses::.cpu.data    139778102                       # number of overall (read+write) accesses
system.cpu.dcache.overall_accesses::total    139778102                       # number of overall (read+write) accesses
system.cpu.dcache.demand_miss_rate::.cpu.data     0.029932                       # miss rate for demand accesses
system.cpu.dcache.demand_miss_rate::total     0.029932                       # miss rate for demand accesses
system.cpu.dcache.overall_miss_rate::.cpu.data     0.030174                       # miss rate for overall accesses
system.cpu.dcache.overall_miss_rate::total     0.030174                       # miss rate for overall accesses
system.cpu.dcache.demand_avg_miss_latency::.cpu.data 15959.050657                       # average overall miss latency
system.cpu.dcache.demand_avg_miss_latency::total 15959.050657                       # average overall miss latency
system.cpu.dcache.overall_avg_miss_latency::.cpu.data 15822.738776                       # average overall miss latency
system.cpu.dcache.overall_avg_miss_latency::total 15822.738776                       # average overall miss latency
system.cpu.dcache.blocked_cycles::no_mshrs            0                       # number of cycles access was blocked
system.cpu.dcache.blocked_cycles::no_targets            0                       # number of cycles access was blocked
system.cpu.dcache.blocked::no_mshrs                 0                       # number of cycles access was blocked
system.cpu.dcache.blocked::no_targets               0                       # number of cycles access was blocked
system.cpu.dcache.avg_blocked_cycles::no_mshrs          nan                       # average number of cycles each access was blocked
system.cpu.dcache.avg_blocked_cycles::no_targets          nan                       # average number of cycles each access was blocked
system.cpu.dcache.writebacks::.writebacks      1482967                       # number of writebacks
system.cpu.dcache.writebacks::total           1482967                       # number of writebacks
system.cpu.dcache.demand_mshr_hits::.cpu.data            1                       # number of demand (read+write) MSHR hits
system.cpu.dcache.demand_mshr_hits::total            1                       # number of demand (read+write) MSHR hits
system.cpu.dcache.overall_mshr_hits::.cpu.data            1                       # number of overall MSHR hits
system.cpu.dcache.overall_mshr_hits::total            1                       # number of overall MSHR hits
system.cpu.dcache.demand_mshr_misses::.cpu.data      4181690                       # number of demand (read+write) MSHR misses
system.cpu.dcache.demand_mshr_misses::total      4181690                       # number of demand (read+write) MSHR misses
system.cpu.dcache.overall_mshr_misses::.cpu.data      4217684                       # number of overall MSHR misses
system.cpu.dcache.overall_mshr_misses::total      4217684                       # number of overall MSHR misses
system.cpu.dcache.demand_mshr_miss_latency::.cpu.data  62554125500                       # number of demand (read+write) MSHR miss cycles
system.cpu.dcache.demand_mshr_miss_latency::total  62554125500                       # number of demand (read+write) MSHR miss cycles
system.cpu.dcache.overall_mshr_miss_latency::.cpu.data  63264650500                       # number of overall MSHR miss cycles
system.cpu.dcache.overall_mshr_miss_latency::total  63264650500                       # number of overall MSHR miss cycles
system.cpu.dcache.demand_mshr_miss_rate::.cpu.data     0.029932                       # mshr miss rate for demand accesses
system.cpu.dcache.demand_mshr_miss_rate::total     0.029932                       # mshr miss rate for demand accesses
system.cpu.dcache.overall_mshr_miss_rate::.cpu.data     0.030174                       # mshr miss rate for overall accesses
system.cpu.dcache.overall_mshr_miss_rate::total     0.030174                       # mshr miss rate for overall accesses
system.cpu.dcache.demand_avg_mshr_miss_latency::.cpu.data 14959.053756                       # average overall mshr miss latency
system.cpu.dcache.demand_avg_mshr_miss_latency::total 14959.053756                       # average overall mshr miss latency
system.cpu.dcache.overall_avg_mshr_miss_latency::.cpu.data 14999.855489                       # average overall mshr miss latency
system.cpu.dcache.overall_avg_mshr_miss_latency::total 14999.855489                       # average overall mshr miss latency
system.cpu.dcache.replacements                4217172                       # number of replacements
system.cpu.dcache.ReadReq_hits::.cpu.data    126010553                       # number of ReadReq hits
system.cpu.dcache.ReadReq_hits::total       126010553                       # number of ReadReq hits
system.cpu.dcache.ReadReq_misses::.cpu.data      3624532                       # number of ReadReq misses
system.cpu.dcache.ReadReq_misses::total       3624532                       # number of ReadReq misses
system.cpu.dcache.ReadReq_miss_latency::.cpu.data  49385338000                       # number of ReadReq miss cycles
system.cpu.dcache.ReadReq_miss_latency::total  49385338000                       # number of ReadReq miss cycles
system.cpu.dcache.ReadReq_accesses::.cpu.data    129635085                       # number of ReadReq accesses(hits+misses)
system.cpu.dcache.ReadReq_accesses::total    129635085                       # number of ReadReq accesses(hits+misses)
system.cpu.dcache.ReadReq_miss_rate::.cpu.data     0.027959                       # miss rate for ReadReq accesses
system.cpu.dcache.ReadReq_miss_rate::total     0.027959                       # miss rate for ReadReq accesses
system.cpu.dcache.ReadReq_avg_miss_latency::.cpu.data 13625.300591                       # average ReadReq miss latency
system.cpu.dcache.ReadReq_avg_miss_latency::total 13625.300591                       # average ReadReq miss latency
system.cpu.dcache.ReadReq_mshr_hits::.cpu.data            1                       # number of ReadReq MSHR hits
system.cpu.dcache.ReadReq_mshr_hits::total            1                       # number of ReadReq MSHR hits
system.cpu.dcache.ReadReq_mshr_misses::.cpu.data      3624531                       # number of ReadReq MSHR misses
system.cpu.dcache.ReadReq_mshr_misses::total      3624531                       # number of ReadReq MSHR misses
system.cpu.dcache.ReadReq_mshr_miss_latency::.cpu.data  45760804000                       # number of ReadReq MSHR miss cycles
system.cpu.dcache.ReadReq_mshr_miss_latency::total  45760804000                       # number of ReadReq MSHR miss cycles
system.cpu.dcache.ReadReq_mshr_miss_rate::.cpu.data     0.027959                       # mshr miss rate for ReadReq accesses
system.cpu.dcache.ReadReq_mshr_miss_rate::total     0.027959                       # mshr miss rate for ReadReq accesses
system.cpu.dcache.ReadReq_avg_mshr_miss_latency::.cpu.data 12625.303522                       # average ReadReq mshr miss latency
system.cpu.dcache.ReadReq_avg_mshr_miss_latency::total 12625.303522                       # average ReadReq mshr miss latency
system.cpu.dcache.WriteReq_hits::.cpu.data      9513482                       # number of WriteReq hits
system.cpu.dcache.WriteReq_hits::total        9513482                       # number of WriteReq hits
system.cpu.dcache.WriteReq_misses::.cpu.data       557159                       # number of WriteReq misses
system.cpu.dcache.WriteReq_misses::total       557159                       # number of WriteReq misses
system.cpu.dcache.WriteReq_miss_latency::.cpu.data  17350480500                       # number of WriteReq miss cycles
system.cpu.dcache.WriteReq_miss_latency::total  17350480500                       # number of WriteReq miss cycles
system.cpu.dcache.WriteReq_accesses::.cpu.data     10070641                       # number of WriteReq accesses(hits+misses)
system.cpu.dcache.WriteReq_accesses::total     10070641                       # number of WriteReq accesses(hits+misses)
system.cpu.dcache.WriteReq_miss_rate::.cpu.data     0.055325                       # miss rate for WriteReq accesses
system.cpu.dcache.WriteReq_miss_rate::total     0.055325                       # miss rate for WriteReq accesses
system.cpu.dcache.WriteReq_avg_miss_latency::.cpu.data 31140.985787                       # average WriteReq miss latency
system.cpu.dcache.WriteReq_avg_miss_latency::total 31140.985787                       # average WriteReq miss latency
system.cpu.dcache.WriteReq_mshr_misses::.cpu.data       557159                       # number of WriteReq MSHR misses
system.cpu.dcache.WriteReq_mshr_misses::total       557159                       # number of WriteReq MSHR misses
system.cpu.dcache.WriteReq_mshr_miss_latency::.cpu.data  16793321500                       # number of WriteReq MSHR miss cycles
system.cpu.dcache.WriteReq_mshr_miss_latency::total  16793321500                       # number of WriteReq MSHR miss cycles
system.cpu.dcache.WriteReq_mshr_miss_rate::.cpu.data     0.055325                       # mshr miss rate for WriteReq accesses
system.cpu.dcache.WriteReq_mshr_miss_rate::total     0.055325                       # mshr miss rate for WriteReq accesses
system.cpu.dcache.WriteReq_avg_mshr_miss_latency::.cpu.data 30140.985787                       # average WriteReq mshr miss latency
system.cpu.dcache.WriteReq_avg_mshr_miss_latency::total 30140.985787                       # average WriteReq mshr miss latency
system.cpu.dcache.SoftPFReq_hits::.cpu.data        36351                       # number of SoftPFReq hits
system.cpu.dcache.SoftPFReq_hits::total         36351                       # number of SoftPFReq hits
system.cpu.dcache.SoftPFReq_misses::.cpu.data        36025                       # number of SoftPFReq misses
system.cpu.dcache.SoftPFReq_misses::total        36025                       # number of SoftPFReq misses
system.cpu.dcache.SoftPFReq_accesses::.cpu.data        72376                       # number of SoftPFReq accesses(hits+misses)
system.cpu.dcache.SoftPFReq_accesses::total        72376                       # number of SoftPFReq accesses(hits+misses)
system.cpu.dcache.SoftPFReq_miss_rate::.cpu.data     0.497748                       # miss rate for SoftPFReq accesses
system.cpu.dcache.SoftPFReq_miss_rate::total     0.497748                       # miss rate for SoftPFReq accesses
system.cpu.dcache.SoftPFReq_mshr_misses::.cpu.data        35994                       # number of SoftPFReq MSHR misses
system.cpu.dcache.SoftPFReq_mshr_misses::total        35994                       # number of SoftPFReq MSHR misses
system.cpu.dcache.SoftPFReq_mshr_miss_latency::.cpu.data    710525000                       # number of SoftPFReq MSHR miss cycles
system.cpu.dcache.SoftPFReq_mshr_miss_latency::total    710525000                       # number of SoftPFReq MSHR miss cycles
system.cpu.dcache.SoftPFReq_mshr_miss_rate::.cpu.data     0.497320                       # mshr miss rate for SoftPFReq accesses
system.cpu.dcache.SoftPFReq_mshr_miss_rate::total     0.497320                       # mshr miss rate for SoftPFReq accesses
system.cpu.dcache.SoftPFReq_avg_mshr_miss_latency::.cpu.data 19740.095571                       # average SoftPFReq mshr miss latency
system.cpu.dcache.SoftPFReq_avg_mshr_miss_latency::total 19740.095571                       # average SoftPFReq mshr miss latency
system.cpu.dcache.power_state.pwrStateResidencyTicks::UNDEFINED 615179165500                       # Cumulative time (in ticks) in various power states
system.cpu.dcache.tags.tagsinuse           511.946601                       # Cycle average of tags in use
system.cpu.dcache.tags.total_refs           139778070                       # Total number of references to valid blocks.
system.cpu.dcache.tags.sampled_refs           4217684                       # Sample count of references to valid blocks.
system.cpu.dcache.tags.avg_refs             33.140954                       # Average number of references to valid blocks.
system.cpu.dcache.tags.warmup_cycle            174500                       # Cycle when the warmup percentage was hit.
system.cpu.dcache.tags.occ_blocks::.cpu.data   511.946601                       # Average occupied blocks per requestor
system.cpu.dcache.tags.occ_percent::.cpu.data     0.999896                       # Average percentage of cache occupancy
system.cpu.dcache.tags.occ_percent::total     0.999896                       # Average percentage of cache occupancy
system.cpu.dcache.tags.occ_task_id_blocks::1024          512                       # Occupied blocks per task id
system.cpu.dcache.tags.age_task_id_blocks_1024::0           52                       # Occupied blocks per task id
system.cpu.dcache.tags.age_task_id_blocks_1024::1          368                       # Occupied blocks per task id
system.cpu.dcache.tags.age_task_id_blocks_1024::2           91                       # Occupied blocks per task id
system.cpu.dcache.tags.age_task_id_blocks_1024::4            1                       # Occupied blocks per task id
system.cpu.dcache.tags.occ_task_id_percent::1024            1                       # Percentage of cache occupancy per task id
system.cpu.dcache.tags.tag_accesses         283773888                       # Number of tag accesses
system.cpu.dcache.tags.data_accesses        283773888                       # Number of data accesses
system.cpu.dcache.tags.power_state.pwrStateResidencyTicks::UNDEFINED 615179165500                       # Cumulative time (in ticks) in various power states
system.cpu.dtb.rdAccesses                   129707525                       # TLB accesses on read requests
system.cpu.dtb.wrAccesses                    10217888                       # TLB accesses on write requests
system.cpu.dtb.rdMisses                        338862                       # TLB misses on read requests
system.cpu.dtb.wrMisses                        466936                       # TLB misses on write requests
system.cpu.dtb.walker.power_state.pwrStateResidencyTicks::UNDEFINED 615179165500                       # Cumulative time (in ticks) in various power states
system.cpu.dtb_walker_cache.blocked_cycles::no_mshrs            0                       # number of cycles access was blocked
system.cpu.dtb_walker_cache.blocked_cycles::no_targets            0                       # number of cycles access was blocked
system.cpu.dtb_walker_cache.blocked::no_mshrs            0                       # number of cycles access was blocked
system.cpu.dtb_walker_cache.blocked::no_targets            0                       # number of cycles access was blocked
system.cpu.dtb_walker_cache.avg_blocked_cycles::no_mshrs          nan                       # average number of cycles each access was blocked
system.cpu.dtb_walker_cache.avg_blocked_cycles::no_targets          nan                       # average number of cycles each access was blocked
system.cpu.dtb_walker_cache.replacements            0                       # number of replacements
system.cpu.dtb_walker_cache.power_state.pwrStateResidencyTicks::UNDEFINED 615179165500                       # Cumulative time (in ticks) in various power states
system.cpu.dtb_walker_cache.tags.tagsinuse            0                       # Cycle average of tags in use
system.cpu.dtb_walker_cache.tags.total_refs            0                       # Total number of references to valid blocks.
system.cpu.dtb_walker_cache.tags.sampled_refs            0                       # Sample count of references to valid blocks.
system.cpu.dtb_walker_cache.tags.avg_refs          nan                       # Average number of references to valid blocks.
system.cpu.dtb_walker_cache.tags.warmup_cycle            0                       # Cycle when the warmup percentage was hit.
system.cpu.dtb_walker_cache.tags.tag_accesses            0                       # Number of tag accesses
system.cpu.dtb_walker_cache.tags.data_accesses            0                       # Number of data accesses
system.cpu.dtb_walker_cache.tags.power_state.pwrStateResidencyTicks::UNDEFINED 615179165500                       # Cumulative time (in ticks) in various power states
system.cpu.icache.demand_hits::.cpu.inst    412771961                       # number of demand (read+write) hits
system.cpu.icache.demand_hits::total        412771961                       # number of demand (read+write) hits
system.cpu.icache.overall_hits::.cpu.inst    412771961                       # number of overall hits
system.cpu.icache.overall_hits::total       412771961                       # number of overall hits
system.cpu.icache.demand_misses::.cpu.inst         1200                       # number of demand (read+write) misses
system.cpu.icache.demand_misses::total           1200                       # number of demand (read+write) misses
system.cpu.icache.overall_misses::.cpu.inst         1200                       # number of overall misses
system.cpu.icache.overall_misses::total          1200                       # number of overall misses
system.cpu.icache.demand_miss_latency::.cpu.inst     89528000                       # number of demand (read+write) miss cycles
system.cpu.icache.demand_miss_latency::total     89528000                       # number of demand (read+write) miss cycles
system.cpu.icache.overall_miss_latency::.cpu.inst     89528000                       # number of overall miss cycles
system.cpu.icache.overall_miss_latency::total     89528000                       # number of overall miss cycles
system.cpu.icache.demand_accesses::.cpu.inst    412773161                       # number of demand (read+write) accesses
system.cpu.icache.demand_accesses::total    412773161                       # number of demand (read+write) accesses
system.cpu.icache.overall_accesses::.cpu.inst    412773161                       # number of overall (read+write) accesses
system.cpu.icache.overall_accesses::total    412773161                       # number of overall (read+write) accesses
system.cpu.icache.demand_miss_rate::.cpu.inst     0.000003                       # miss rate for demand accesses
system.cpu.icache.demand_miss_rate::total     0.000003                       # miss rate for demand accesses
system.cpu.icache.overall_miss_rate::.cpu.inst     0.000003                       # miss rate for overall accesses
system.cpu.icache.overall_miss_rate::total     0.000003                       # miss rate for overall accesses
system.cpu.icache.demand_avg_miss_latency::.cpu.inst 74606.666667                       # average overall miss latency
system.cpu.icache.demand_avg_miss_latency::total 74606.666667                       # average overall miss latency
system.cpu.icache.overall_avg_miss_latency::.cpu.inst 74606.666667                       # average overall miss latency
system.cpu.icache.overall_avg_miss_latency::total 74606.666667                       # average overall miss latency
system.cpu.icache.blocked_cycles::no_mshrs            0                       # number of cycles access was blocked
system.cpu.icache.blocked_cycles::no_targets            0                       # number of cycles access was blocked
system.cpu.icache.blocked::no_mshrs                 0                       # number of cycles access was blocked
system.cpu.icache.blocked::no_targets               0                       # number of cycles access was blocked
system.cpu.icache.avg_blocked_cycles::no_mshrs          nan                       # average number of cycles each access was blocked
system.cpu.icache.avg_blocked_cycles::no_targets          nan                       # average number of cycles each access was blocked
system.cpu.icache.writebacks::.writebacks          709                       # number of writebacks
system.cpu.icache.writebacks::total               709                       # number of writebacks
system.cpu.icache.demand_mshr_misses::.cpu.inst         1200                       # number of demand (read+write) MSHR misses
system.cpu.icache.demand_mshr_misses::total         1200                       # number of demand (read+write) MSHR misses
system.cpu.icache.overall_mshr_misses::.cpu.inst         1200                       # number of overall MSHR misses
system.cpu.icache.overall_mshr_misses::total         1200                       # number of overall MSHR misses
system.cpu.icache.demand_mshr_miss_latency::.cpu.inst     88328000                       # number of demand (read+write) MSHR miss cycles
system.cpu.icache.demand_mshr_miss_latency::total     88328000                       # number of demand (read+write) MSHR miss cycles
system.cpu.icache.overall_mshr_miss_latency::.cpu.inst     88328000                       # number of overall MSHR miss cycles
system.cpu.icache.overall_mshr_miss_latency::total     88328000                       # number of overall MSHR miss cycles
system.cpu.icache.demand_mshr_miss_rate::.cpu.inst     0.000003                       # mshr miss rate for demand accesses
system.cpu.icache.demand_mshr_miss_rate::total     0.000003                       # mshr miss rate for demand accesses
system.cpu.icache.overall_mshr_miss_rate::.cpu.inst     0.000003                       # mshr miss rate for overall accesses
system.cpu.icache.overall_mshr_miss_rate::total     0.000003                       # mshr miss rate for overall accesses
system.cpu.icache.demand_avg_mshr_miss_latency::.cpu.inst 73606.666667                       # average overall mshr miss latency
system.cpu.icache.demand_avg_mshr_miss_latency::total 73606.666667                       # average overall mshr miss latency
system.cpu.icache.overall_avg_mshr_miss_latency::.cpu.inst 73606.666667                       # average overall mshr miss latency
system.cpu.icache.overall_avg_mshr_miss_latency::total 73606.666667                       # average overall mshr miss latency
system.cpu.icache.replacements                    709                       # number of replacements
system.cpu.icache.ReadReq_hits::.cpu.inst    412771961                       # number of ReadReq hits
system.cpu.icache.ReadReq_hits::total       412771961                       # number of ReadReq hits
system.cpu.icache.ReadReq_misses::.cpu.inst         1200                       # number of ReadReq misses
system.cpu.icache.ReadReq_misses::total          1200                       # number of ReadReq misses
system.cpu.icache.ReadReq_miss_latency::.cpu.inst     89528000                       # number of ReadReq miss cycles
system.cpu.icache.ReadReq_miss_latency::total     89528000                       # number of ReadReq miss cycles
system.cpu.icache.ReadReq_accesses::.cpu.inst    412773161                       # number of ReadReq accesses(hits+misses)
system.cpu.icache.ReadReq_accesses::total    412773161                       # number of ReadReq accesses(hits+misses)
system.cpu.icache.ReadReq_miss_rate::.cpu.inst     0.000003                       # miss rate for ReadReq accesses
system.cpu.icache.ReadReq_miss_rate::total     0.000003                       # miss rate for ReadReq accesses
system.cpu.icache.ReadReq_avg_miss_latency::.cpu.inst 74606.666667                       # average ReadReq miss latency
system.cpu.icache.ReadReq_avg_miss_latency::total 74606.666667                       # average ReadReq miss latency
system.cpu.icache.ReadReq_mshr_misses::.cpu.inst         1200                       # number of ReadReq MSHR misses
system.cpu.icache.ReadReq_mshr_misses::total         1200                       # number of ReadReq MSHR misses
system.cpu.icache.ReadReq_mshr_miss_latency::.cpu.inst     88328000                       # number of ReadReq MSHR miss cycles
system.cpu.icache.ReadReq_mshr_miss_latency::total     88328000                       # number of ReadReq MSHR miss cycles
system.cpu.icache.ReadReq_mshr_miss_rate::.cpu.inst     0.000003                       # mshr miss rate for ReadReq accesses
system.cpu.icache.ReadReq_mshr_miss_rate::total     0.000003                       # mshr miss rate for ReadReq accesses
system.cpu.icache.ReadReq_avg_mshr_miss_latency::.cpu.inst 73606.666667                       # average ReadReq mshr miss latency
system.cpu.icache.ReadReq_avg_mshr_miss_latency::total 73606.666667                       # average ReadReq mshr miss latency
system.cpu.icache.power_state.pwrStateResidencyTicks::UNDEFINED 615179165500                       # Cumulative time (in ticks) in various power states
system.cpu.icache.tags.tagsinuse           490.358026                       # Cycle average of tags in use
system.cpu.icache.tags.total_refs           412773161                       # Total number of references to valid blocks.
system.cpu.icache.tags.sampled_refs              1200                       # Sample count of references to valid blocks.
system.cpu.icache.tags.avg_refs          343977.634167                       # Average number of references to valid blocks.
system.cpu.icache.tags.warmup_cycle             87500                       # Cycle when the warmup percentage was hit.
system.cpu.icache.tags.occ_blocks::.cpu.inst   490.358026                       # Average occupied blocks per requestor
system.cpu.icache.tags.occ_percent::.cpu.inst     0.957731                       # Average percentage of cache occupancy
system.cpu.icache.tags.occ_percent::total     0.957731                       # Average percentage of cache occupancy
system.cpu.icache.tags.occ_task_id_blocks::1024          491                       # Occupied blocks per task id
system.cpu.icache.tags.age_task_id_blocks_1024::4          491                       # Occupied blocks per task id
system.cpu.icache.tags.occ_task_id_percent::1024     0.958984                       # Percentage of cache occupancy per task id
system.cpu.icache.tags.tag_accesses         825547522                       # Number of tag accesses
system.cpu.icache.tags.data_accesses        825547522                       # Number of data accesses
system.cpu.icache.tags.power_state.pwrStateResidencyTicks::UNDEFINED 615179165500                       # Cumulative time (in ticks) in various power states
system.cpu.interrupts.clk_domain.clock           8000                       # Clock period in ticks
system.cpu.itb.rdAccesses                           0                       # TLB accesses on read requests
system.cpu.itb.wrAccesses                   412773210                       # TLB accesses on write requests
system.cpu.itb.rdMisses                             0                       # TLB misses on read requests
system.cpu.itb.wrMisses                           195                       # TLB misses on write requests
system.cpu.itb.walker.power_state.pwrStateResidencyTicks::UNDEFINED 615179165500                       # Cumulative time (in ticks) in various power states
system.cpu.itb_walker_cache.blocked_cycles::no_mshrs            0                       # number of cycles access was blocked
system.cpu.itb_walker_cache.blocked_cycles::no_targets            0                       # number of cycles access was blocked
system.cpu.itb_walker_cache.blocked::no_mshrs            0                       # number of cycles access was blocked
system.cpu.itb_walker_cache.blocked::no_targets            0                       # number of cycles access was blocked
system.cpu.itb_walker_cache.avg_blocked_cycles::no_mshrs          nan                       # average number of cycles each access was blocked
system.cpu.itb_walker_cache.avg_blocked_cycles::no_targets          nan                       # average number of cycles each access was blocked
system.cpu.itb_walker_cache.replacements            0                       # number of replacements
system.cpu.itb_walker_cache.power_state.pwrStateResidencyTicks::UNDEFINED 615179165500                       # Cumulative time (in ticks) in various power states
system.cpu.itb_walker_cache.tags.tagsinuse            0                       # Cycle average of tags in use
system.cpu.itb_walker_cache.tags.total_refs            0                       # Total number of references to valid blocks.
system.cpu.itb_walker_cache.tags.sampled_refs            0                       # Sample count of references to valid blocks.
system.cpu.itb_walker_cache.tags.avg_refs          nan                       # Average number of references to valid blocks.
system.cpu.itb_walker_cache.tags.warmup_cycle            0                       # Cycle when the warmup percentage was hit.
system.cpu.itb_walker_cache.tags.tag_accesses            0                       # Number of tag accesses
system.cpu.itb_walker_cache.tags.data_accesses            0                       # Number of data accesses
system.cpu.itb_walker_cache.tags.power_state.pwrStateResidencyTicks::UNDEFINED 615179165500                       # Cumulative time (in ticks) in various power states
system.cpu.power_state.pwrStateResidencyTicks::ON 615179165500                       # Cumulative time (in ticks) in various power states
system.cpu.thread_0.numInsts                        0                       # Number of Instructions committed
system.cpu.thread_0.numOps                          0                       # Number of Ops committed
system.cpu.thread_0.numMemRefs                      0                       # Number of Memory References
system.cpu_clk_domain.clock                       500                       # Clock period in ticks
system.cpu_voltage_domain.voltage                   1                       # Voltage in Volts
system.l2.demand_hits::.cpu.inst                  102                       # number of demand (read+write) hits
system.l2.demand_hits::.cpu.data              4050398                       # number of demand (read+write) hits
system.l2.demand_hits::total                  4050500                       # number of demand (read+write) hits
system.l2.overall_hits::.cpu.inst                 102                       # number of overall hits
system.l2.overall_hits::.cpu.data             4050398                       # number of overall hits
system.l2.overall_hits::total                 4050500                       # number of overall hits
system.l2.demand_misses::.cpu.inst               1098                       # number of demand (read+write) misses
system.l2.demand_misses::.cpu.data             167286                       # number of demand (read+write) misses
system.l2.demand_misses::total                 168384                       # number of demand (read+write) misses
system.l2.overall_misses::.cpu.inst              1098                       # number of overall misses
system.l2.overall_misses::.cpu.data            167286                       # number of overall misses
system.l2.overall_misses::total                168384                       # number of overall misses
system.l2.demand_miss_latency::.cpu.inst     85417000                       # number of demand (read+write) miss cycles
system.l2.demand_miss_latency::.cpu.data  14408519500                       # number of demand (read+write) miss cycles
system.l2.demand_miss_latency::total      14493936500                       # number of demand (read+write) miss cycles
system.l2.overall_miss_latency::.cpu.inst     85417000                       # number of overall miss cycles
system.l2.overall_miss_latency::.cpu.data  14408519500                       # number of overall miss cycles
system.l2.overall_miss_latency::total     14493936500                       # number of overall miss cycles
system.l2.demand_accesses::.cpu.inst             1200                       # number of demand (read+write) accesses
system.l2.demand_accesses::.cpu.data          4217684                       # number of demand (read+write) accesses
system.l2.demand_accesses::total              4218884                       # number of demand (read+write) accesses
system.l2.overall_accesses::.cpu.inst            1200                       # number of overall (read+write) accesses
system.l2.overall_accesses::.cpu.data         4217684                       # number of overall (read+write) accesses
system.l2.overall_accesses::total             4218884                       # number of overall (read+write) accesses
system.l2.demand_miss_rate::.cpu.inst        0.915000                       # miss rate for demand accesses
system.l2.demand_miss_rate::.cpu.data        0.039663                       # miss rate for demand accesses
system.l2.demand_miss_rate::total            0.039912                       # miss rate for demand accesses
system.l2.overall_miss_rate::.cpu.inst       0.915000                       # miss rate for overall accesses
system.l2.overall_miss_rate::.cpu.data       0.039663                       # miss rate for overall accesses
system.l2.overall_miss_rate::total           0.039912                       # miss rate for overall accesses
system.l2.demand_avg_miss_latency::.cpu.inst 77793.260474                       # average overall miss latency
system.l2.demand_avg_miss_latency::.cpu.data 86131.054003                       # average overall miss latency
system.l2.demand_avg_miss_latency::total 86076.684839                       # average overall miss latency
system.l2.overall_avg_miss_latency::.cpu.inst 77793.260474                       # average overall miss latency
system.l2.overall_avg_miss_latency::.cpu.data 86131.054003                       # average overall miss latency
system.l2.overall_avg_miss_latency::total 86076.684839                       # average overall miss latency
system.l2.blocked_cycles::no_mshrs                  0                       # number of cycles access was blocked
system.l2.blocked_cycles::no_targets                0                       # number of cycles access was blocked
system.l2.blocked::no_mshrs                         0                       # number of cycles access was blocked
system.l2.blocked::no_targets                       0                       # number of cycles access was blocked
system.l2.avg_blocked_cycles::no_mshrs            nan                       # average number of cycles each access was blocked
system.l2.avg_blocked_cycles::no_targets          nan                       # average number of cycles each access was blocked
system.l2.writebacks::.writebacks              119968                       # number of writebacks
system.l2.writebacks::total                    119968                       # number of writebacks
system.l2.demand_mshr_misses::.cpu.inst          1098                       # number of demand (read+write) MSHR misses
system.l2.demand_mshr_misses::.cpu.data        167286                       # number of demand (read+write) MSHR misses
system.l2.demand_mshr_misses::total            168384                       # number of demand (read+write) MSHR misses
system.l2.overall_mshr_misses::.cpu.inst         1098                       # number of overall MSHR misses
system.l2.overall_mshr_misses::.cpu.data       167286                       # number of overall MSHR misses
system.l2.overall_mshr_misses::total           168384                       # number of overall MSHR misses
system.l2.demand_mshr_miss_latency::.cpu.inst     74437000                       # number of demand (read+write) MSHR miss cycles
system.l2.demand_mshr_miss_latency::.cpu.data  12735659500                       # number of demand (read+write) MSHR miss cycles
system.l2.demand_mshr_miss_latency::total  12810096500                       # number of demand (read+write) MSHR miss cycles
system.l2.overall_mshr_miss_latency::.cpu.inst     74437000                       # number of overall MSHR miss cycles
system.l2.overall_mshr_miss_latency::.cpu.data  12735659500                       # number of overall MSHR miss cycles
system.l2.overall_mshr_miss_latency::total  12810096500                       # number of overall MSHR miss cycles
system.l2.demand_mshr_miss_rate::.cpu.inst     0.915000                       # mshr miss rate for demand accesses
system.l2.demand_mshr_miss_rate::.cpu.data     0.039663                       # mshr miss rate for demand accesses
system.l2.demand_mshr_miss_rate::total       0.039912                       # mshr miss rate for demand accesses
system.l2.overall_mshr_miss_rate::.cpu.inst     0.915000                       # mshr miss rate for overall accesses
system.l2.overall_mshr_miss_rate::.cpu.data     0.039663                       # mshr miss rate for overall accesses
system.l2.overall_mshr_miss_rate::total      0.039912                       # mshr miss rate for overall accesses
system.l2.demand_avg_mshr_miss_latency::.cpu.inst 67793.260474                       # average overall mshr miss latency
system.l2.demand_avg_mshr_miss_latency::.cpu.data 76131.054003                       # average overall mshr miss latency
system.l2.demand_avg_mshr_miss_latency::total 76076.684839                       # average overall mshr miss latency
system.l2.overall_avg_mshr_miss_latency::.cpu.inst 67793.260474                       # average overall mshr miss latency
system.l2.overall_avg_mshr_miss_latency::.cpu.data 76131.054003                       # average overall mshr miss latency
system.l2.overall_avg_mshr_miss_latency::total 76076.684839                       # average overall mshr miss latency
system.l2.replacements                         135753                       # number of replacements
system.l2.WritebackDirty_hits::.writebacks      1482967                       # number of WritebackDirty hits
system.l2.WritebackDirty_hits::total          1482967                       # number of WritebackDirty hits
system.l2.WritebackDirty_accesses::.writebacks      1482967                       # number of WritebackDirty accesses(hits+misses)
system.l2.WritebackDirty_accesses::total      1482967                       # number of WritebackDirty accesses(hits+misses)
system.l2.WritebackClean_hits::.writebacks          709                       # number of WritebackClean hits
system.l2.WritebackClean_hits::total              709                       # number of WritebackClean hits
system.l2.WritebackClean_accesses::.writebacks          709                       # number of WritebackClean accesses(hits+misses)
system.l2.WritebackClean_accesses::total          709                       # number of WritebackClean accesses(hits+misses)
system.l2.ReadExReq_hits::.cpu.data            425512                       # number of ReadExReq hits
system.l2.ReadExReq_hits::total                425512                       # number of ReadExReq hits
system.l2.ReadExReq_misses::.cpu.data          131647                       # number of ReadExReq misses
system.l2.ReadExReq_misses::total              131647                       # number of ReadExReq misses
system.l2.ReadExReq_miss_latency::.cpu.data  11489449000                       # number of ReadExReq miss cycles
system.l2.ReadExReq_miss_latency::total   11489449000                       # number of ReadExReq miss cycles
system.l2.ReadExReq_accesses::.cpu.data        557159                       # number of ReadExReq accesses(hits+misses)
system.l2.ReadExReq_accesses::total            557159                       # number of ReadExReq accesses(hits+misses)
system.l2.ReadExReq_miss_rate::.cpu.data     0.236283                       # miss rate for ReadExReq accesses
system.l2.ReadExReq_miss_rate::total         0.236283                       # miss rate for ReadExReq accesses
system.l2.ReadExReq_avg_miss_latency::.cpu.data 87274.673939                       # average ReadExReq miss latency
system.l2.ReadExReq_avg_miss_latency::total 87274.673939                       # average ReadExReq miss latency
system.l2.ReadExReq_mshr_misses::.cpu.data       131647                       # number of ReadExReq MSHR misses
system.l2.ReadExReq_mshr_misses::total         131647                       # number of ReadExReq MSHR misses
system.l2.ReadExReq_mshr_miss_latency::.cpu.data  10172979000                       # number of ReadExReq MSHR miss cycles
system.l2.ReadExReq_mshr_miss_latency::total  10172979000                       # number of ReadExReq MSHR miss cycles
system.l2.ReadExReq_mshr_miss_rate::.cpu.data     0.236283                       # mshr miss rate for ReadExReq accesses
system.l2.ReadExReq_mshr_miss_rate::total     0.236283                       # mshr miss rate for ReadExReq accesses
system.l2.ReadExReq_avg_mshr_miss_latency::.cpu.data 77274.673939                       # average ReadExReq mshr miss latency
system.l2.ReadExReq_avg_mshr_miss_latency::total 77274.673939                       # average ReadExReq mshr miss latency
system.l2.ReadCleanReq_hits::.cpu.inst            102                       # number of ReadCleanReq hits
system.l2.ReadCleanReq_hits::total                102                       # number of ReadCleanReq hits
system.l2.ReadCleanReq_misses::.cpu.inst         1098                       # number of ReadCleanReq misses
system.l2.ReadCleanReq_misses::total             1098                       # number of ReadCleanReq misses
system.l2.ReadCleanReq_miss_latency::.cpu.inst     85417000                       # number of ReadCleanReq miss cycles
system.l2.ReadCleanReq_miss_latency::total     85417000                       # number of ReadCleanReq miss cycles
system.l2.ReadCleanReq_accesses::.cpu.inst         1200                       # number of ReadCleanReq accesses(hits+misses)
system.l2.ReadCleanReq_accesses::total           1200                       # number of ReadCleanReq accesses(hits+misses)
system.l2.ReadCleanReq_miss_rate::.cpu.inst     0.915000                       # miss rate for ReadCleanReq accesses
system.l2.ReadCleanReq_miss_rate::total      0.915000                       # miss rate for ReadCleanReq accesses
system.l2.ReadCleanReq_avg_miss_latency::.cpu.inst 77793.260474                       # average ReadCleanReq miss latency
system.l2.ReadCleanReq_avg_miss_latency::total 77793.260474                       # average ReadCleanReq miss latency
system.l2.ReadCleanReq_mshr_misses::.cpu.inst         1098                       # number of ReadCleanReq MSHR misses
system.l2.ReadCleanReq_mshr_misses::total         1098                       # number of ReadCleanReq MSHR misses
system.l2.ReadCleanReq_mshr_miss_latency::.cpu.inst     74437000                       # number of ReadCleanReq MSHR miss cycles
system.l2.ReadCleanReq_mshr_miss_latency::total     74437000                       # number of ReadCleanReq MSHR miss cycles
system.l2.ReadCleanReq_mshr_miss_rate::.cpu.inst     0.915000                       # mshr miss rate for ReadCleanReq accesses
system.l2.ReadCleanReq_mshr_miss_rate::total     0.915000                       # mshr miss rate for ReadCleanReq accesses
system.l2.ReadCleanReq_avg_mshr_miss_latency::.cpu.inst 67793.260474                       # average ReadCleanReq mshr miss latency
system.l2.ReadCleanReq_avg_mshr_miss_latency::total 67793.260474                       # average ReadCleanReq mshr miss latency
system.l2.ReadSharedReq_hits::.cpu.data       3624886                       # number of ReadSharedReq hits
system.l2.ReadSharedReq_hits::total           3624886                       # number of ReadSharedReq hits
system.l2.ReadSharedReq_misses::.cpu.data        35639                       # number of ReadSharedReq misses
system.l2.ReadSharedReq_misses::total           35639                       # number of ReadSharedReq misses
system.l2.ReadSharedReq_miss_latency::.cpu.data   2919070500                       # number of ReadSharedReq miss cycles
system.l2.ReadSharedReq_miss_latency::total   2919070500                       # number of ReadSharedReq miss cycles
system.l2.ReadSharedReq_accesses::.cpu.data      3660525                       # number of ReadSharedReq accesses(hits+misses)
system.l2.ReadSharedReq_accesses::total       3660525                       # number of ReadSharedReq accesses(hits+misses)
system.l2.ReadSharedReq_miss_rate::.cpu.data     0.009736                       # miss rate for ReadSharedReq accesses
system.l2.ReadSharedReq_miss_rate::total     0.009736                       # miss rate for ReadSharedReq accesses
system.l2.ReadSharedReq_avg_miss_latency::.cpu.data 81906.633183                       # average ReadSharedReq miss latency
system.l2.ReadSharedReq_avg_miss_latency::total 81906.633183                       # average ReadSharedReq miss latency
system.l2.ReadSharedReq_mshr_misses::.cpu.data        35639                       # number of ReadSharedReq MSHR misses
system.l2.ReadSharedReq_mshr_misses::total        35639                       # number of ReadSharedReq MSHR misses
system.l2.ReadSharedReq_mshr_miss_latency::.cpu.data   2562680500                       # number of ReadSharedReq MSHR miss cycles
system.l2.ReadSharedReq_mshr_miss_latency::total   2562680500                       # number of ReadSharedReq MSHR miss cycles
system.l2.ReadSharedReq_mshr_miss_rate::.cpu.data     0.009736                       # mshr miss rate for ReadSharedReq accesses
system.l2.ReadSharedReq_mshr_miss_rate::total     0.009736                       # mshr miss rate for ReadSharedReq accesses
system.l2.ReadSharedReq_avg_mshr_miss_latency::.cpu.data 71906.633183                       # average ReadSharedReq mshr miss latency
system.l2.ReadSharedReq_avg_mshr_miss_latency::total 71906.633183                       # average ReadSharedReq mshr miss latency
system.l2.power_state.pwrStateResidencyTicks::UNDEFINED 615179165500                       # Cumulative time (in ticks) in various power states
system.l2.tags.tagsinuse                 32652.883220                       # Cycle average of tags in use
system.l2.tags.total_refs                     8436764                       # Total number of references to valid blocks.
system.l2.tags.sampled_refs                    168521                       # Sample count of references to valid blocks.
system.l2.tags.avg_refs                     50.063577                       # Average number of references to valid blocks.
system.l2.tags.warmup_cycle                     77000                       # Cycle when the warmup percentage was hit.
system.l2.tags.occ_blocks::.writebacks      35.289926                       # Average occupied blocks per requestor
system.l2.tags.occ_blocks::.cpu.inst        43.944343                       # Average occupied blocks per requestor
system.l2.tags.occ_blocks::.cpu.data     32573.648950                       # Average occupied blocks per requestor
system.l2.tags.occ_percent::.writebacks      0.001077                       # Average percentage of cache occupancy
system.l2.tags.occ_percent::.cpu.inst        0.001341                       # Average percentage of cache occupancy
system.l2.tags.occ_percent::.cpu.data        0.994069                       # Average percentage of cache occupancy
system.l2.tags.occ_percent::total            0.996487                       # Average percentage of cache occupancy
system.l2.tags.occ_task_id_blocks::1024         32768                       # Occupied blocks per task id
system.l2.tags.age_task_id_blocks_1024::3            1                       # Occupied blocks per task id
system.l2.tags.age_task_id_blocks_1024::4        32767                       # Occupied blocks per task id
system.l2.tags.occ_task_id_percent::1024            1                       # Percentage of cache occupancy per task id
system.l2.tags.tag_accesses                  67662633                       # Number of tag accesses
system.l2.tags.data_accesses                 67662633                       # Number of data accesses
system.l2.tags.power_state.pwrStateResidencyTicks::UNDEFINED 615179165500                       # Cumulative time (in ticks) in various power states
system.mem_ctrls.avgPriority_.writebacks::samples    119968.00                       # Average QoS priority value for accepted requests
system.mem_ctrls.avgPriority_.cpu.inst::samples      1098.00                       # Average QoS priority value for accepted requests
system.mem_ctrls.avgPriority_.cpu.data::samples    166947.00                       # Average QoS priority value for accepted requests
system.mem_ctrls.priorityMinLatency      0.000000018750                       # per QoS priority minimum request to response latency (s)
system.mem_ctrls.priorityMaxLatency      0.481420400500                       # per QoS priority maximum request to response latency (s)
system.mem_ctrls.numReadWriteTurnArounds         6871                       # Number of turnarounds from READ to WRITE
system.mem_ctrls.numWriteReadTurnArounds         6871                       # Number of turnarounds from WRITE to READ
system.mem_ctrls.numStayReadState              611448                       # Number of times bus staying in READ state
system.mem_ctrls.numStayWriteState             113252                       # Number of times bus staying in WRITE state
system.mem_ctrls.readReqs                      168384                       # Number of read requests accepted
system.mem_ctrls.writeReqs                     119968                       # Number of write requests accepted
system.mem_ctrls.readBursts                    168384                       # Number of controller read bursts, including those serviced by the write queue
system.mem_ctrls.writeBursts                   119968                       # Number of controller write bursts, including those merged in the write queue
system.mem_ctrls.servicedByWrQ                    339                       # Number of controller read bursts serviced by the write queue
system.mem_ctrls.mergedWrBursts                     0                       # Number of controller write bursts merged with an existing one
system.mem_ctrls.neitherReadNorWriteReqs            0                       # Number of requests that are neither read nor write
system.mem_ctrls.avgRdQLen                       1.00                       # Average read queue length when enqueuing
system.mem_ctrls.avgWrQLen                      26.27                       # Average write queue length when enqueuing
system.mem_ctrls.numRdRetry                         0                       # Number of times read queue was full causing retry
system.mem_ctrls.numWrRetry                         0                       # Number of times write queue was full causing retry
system.mem_ctrls.readPktSize::0                     0                       # Read request sizes (log2)
system.mem_ctrls.readPktSize::1                     0                       # Read request sizes (log2)
system.mem_ctrls.readPktSize::2                     0                       # Read request sizes (log2)
system.mem_ctrls.readPktSize::3                     0                       # Read request sizes (log2)
system.mem_ctrls.readPktSize::4                     0                       # Read request sizes (log2)
system.mem_ctrls.readPktSize::5                     0                       # Read request sizes (log2)
system.mem_ctrls.readPktSize::6                168384                       # Read request sizes (log2)
system.mem_ctrls.writePktSize::0                    0                       # Write request sizes (log2)
system.mem_ctrls.writePktSize::1                    0                       # Write request sizes (log2)
system.mem_ctrls.writePktSize::2                    0                       # Write request sizes (log2)
system.mem_ctrls.writePktSize::3                    0                       # Write request sizes (log2)
system.mem_ctrls.writePktSize::4                    0                       # Write request sizes (log2)
system.mem_ctrls.writePktSize::5                    0                       # Write request sizes (log2)
system.mem_ctrls.writePktSize::6               119968                       # Write request sizes (log2)
system.mem_ctrls.rdQLenPdf::0                  167703                       # What read queue length does an incoming req see
system.mem_ctrls.rdQLenPdf::1                     341                       # What read queue length does an incoming req see
system.mem_ctrls.rdQLenPdf::2                       1                       # What read queue length does an incoming req see
system.mem_ctrls.rdQLenPdf::3                       0                       # What read queue length does an incoming req see
system.mem_ctrls.rdQLenPdf::4                       0                       # What read queue length does an incoming req see
system.mem_ctrls.rdQLenPdf::5                       0                       # What read queue length does an incoming req see
system.mem_ctrls.rdQLenPdf::6                       0                       # What read queue length does an incoming req see
system.mem_ctrls.rdQLenPdf::7                       0                       # What read queue length does an incoming req see
system.mem_ctrls.rdQLenPdf::8                       0                       # What read queue length does an incoming req see
system.mem_ctrls.rdQLenPdf::9                       0                       # What read queue length does an incoming req see
system.mem_ctrls.rdQLenPdf::10                      0                       # What read queue length does an incoming req see
system.mem_ctrls.rdQLenPdf::11                      0                       # What read queue length does an incoming req see
system.mem_ctrls.rdQLenPdf::12                      0                       # What read queue length does an incoming req see
system.mem_ctrls.rdQLenPdf::13                      0                       # What read queue length does an incoming req see
system.mem_ctrls.rdQLenPdf::14                      0                       # What read queue length does an incoming req see
system.mem_ctrls.rdQLenPdf::15                      0                       # What read queue length does an incoming req see
system.mem_ctrls.rdQLenPdf::16                      0                       # What read queue length does an incoming req see
system.mem_ctrls.rdQLenPdf::17                      0                       # What read queue length does an incoming req see
system.mem_ctrls.rdQLenPdf::18                      0                       # What read queue length does an incoming req see
system.mem_ctrls.rdQLenPdf::19                      0                       # What read queue length does an incoming req see
system.mem_ctrls.rdQLenPdf::20                      0                       # What read queue length does an incoming req see
system.mem_ctrls.rdQLenPdf::21                      0                       # What read queue length does an incoming req see
system.mem_ctrls.rdQLenPdf::22                      0                       # What read queue length does an incoming req see
system.mem_ctrls.rdQLenPdf::23                      0                       # What read queue length does an incoming req see
system.mem_ctrls.rdQLenPdf::24                      0                       # What read queue length does an incoming req see
system.mem_ctrls.rdQLenPdf::25                      0                       # What read queue length does an incoming req see
system.mem_ctrls.rdQLenPdf::26                      0                       # What read queue length does an incoming req see
system.mem_ctrls.rdQLenPdf::27                      0                       # What read queue length does an incoming req see
system.mem_ctrls.rdQLenPdf::28                      0                       # What read queue length does an incoming req see
system.mem_ctrls.rdQLenPdf::29                      0                       # What read queue length does an incoming req see
system.mem_ctrls.rdQLenPdf::30                      0                       # What read queue length does an incoming req see
system.mem_ctrls.rdQLenPdf::31                      0                       # What read queue length does an incoming req see
system.mem_ctrls.wrQLenPdf::0                       1                       # What write queue length does an incoming req see
system.mem_ctrls.wrQLenPdf::1                       1                       # What write queue length does an incoming req see
system.mem_ctrls.wrQLenPdf::2                       1                       # What write queue length does an incoming req see
system.mem_ctrls.wrQLenPdf::3                       1                       # What write queue length does an incoming req see
system.mem_ctrls.wrQLenPdf::4                       1                       # What write queue length does an incoming req see
system.mem_ctrls.wrQLenPdf::5                       1                       # What write queue length does an incoming req see
system.mem_ctrls.wrQLenPdf::6                       1                       # What write queue length does an incoming req see
system.mem_ctrls.wrQLenPdf::7                       1                       # What write queue length does an incoming req see
system.mem_ctrls.wrQLenPdf::8                       1                       # What write queue length does an incoming req see
system.mem_ctrls.wrQLenPdf::9                       1                       # What write queue length does an incoming req see
system.mem_ctrls.wrQLenPdf::10                      1                       # What write queue length does an incoming req see
system.mem_ctrls.wrQLenPdf::11                      1                       # What write queue length does an incoming req see
system.mem_ctrls.wrQLenPdf::12                      1                       # What write queue length does an incoming req see
system.mem_ctrls.wrQLenPdf::13                      1                       # What write queue length does an incoming req see
system.mem_ctrls.wrQLenPdf::14                      1                       # What write queue length does an incoming req see
system.mem_ctrls.wrQLenPdf::15                   4933                       # What write queue length does an incoming req see
system.mem_ctrls.wrQLenPdf::16                   5051                       # What write queue length does an incoming req see
system.mem_ctrls.wrQLenPdf::17                   6874                       # What write queue length does an incoming req see
system.mem_ctrls.wrQLenPdf::18                   6884                       # What write queue length does an incoming req see
system.mem_ctrls.wrQLenPdf::19                   6876                       # What write queue length does an incoming req see
system.mem_ctrls.wrQLenPdf::20                   6872                       # What write queue length does an incoming req see
system.mem_ctrls.wrQLenPdf::21                   6871                       # What write queue length does an incoming req see
system.mem_ctrls.wrQLenPdf::22                   6871                       # What write queue length does an incoming req see
system.mem_ctrls.wrQLenPdf::23                   6871                       # What write queue length does an incoming req see
system.mem_ctrls.wrQLenPdf::24                   6871                       # What write queue length does an incoming req see
system.mem_ctrls.wrQLenPdf::25                   6876                       # What write queue length does an incoming req see
system.mem_ctrls.wrQLenPdf::26                   6875                       # What write queue length does an incoming req see
system.mem_ctrls.wrQLenPdf::27                   6873                       # What write queue length does an incoming req see
system.mem_ctrls.wrQLenPdf::28                   6871                       # What write queue length does an incoming req see
system.mem_ctrls.wrQLenPdf::29                   6871                       # What write queue length does an incoming req see
system.mem_ctrls.wrQLenPdf::30                   6871                       # What write queue length does an incoming req see
system.mem_ctrls.wrQLenPdf::31                   6871                       # What write queue length does an incoming req see
system.mem_ctrls.wrQLenPdf::32                   6871                       # What write queue length does an incoming req see
system.mem_ctrls.wrQLenPdf::33                      0                       # What write queue length does an incoming req see
system.mem_ctrls.wrQLenPdf::34                      0                       # What write queue length does an incoming req see
system.mem_ctrls.wrQLenPdf::35                      0                       # What write queue length does an incoming req see
system.mem_ctrls.wrQLenPdf::36                      0                       # What write queue length does an incoming req see
system.mem_ctrls.wrQLenPdf::37                      0                       # What write queue length does an incoming req see
system.mem_ctrls.wrQLenPdf::38                      0                       # What write queue length does an incoming req see
system.mem_ctrls.wrQLenPdf::39                      0                       # What write queue length does an incoming req see
system.mem_ctrls.wrQLenPdf::40                      0                       # What write queue length does an incoming req see
system.mem_ctrls.wrQLenPdf::41                      0                       # What write queue length does an incoming req see
system.mem_ctrls.wrQLenPdf::42                      0                       # What write queue length does an incoming req see
system.mem_ctrls.wrQLenPdf::43                      0                       # What write queue length does an incoming req see
system.mem_ctrls.wrQLenPdf::44                      0                       # What write queue length does an incoming req see
system.mem_ctrls.wrQLenPdf::45                      0                       # What write queue length does an incoming req see
system.mem_ctrls.wrQLenPdf::46                      0                       # What write queue length does an incoming req see
system.mem_ctrls.wrQLenPdf::47                      0                       # What write queue length does an incoming req see
system.mem_ctrls.wrQLenPdf::48                      0                       # What write queue length does an incoming req see
system.mem_ctrls.wrQLenPdf::49                      0                       # What write queue length does an incoming req see
system.mem_ctrls.wrQLenPdf::50                      0                       # What write queue length does an incoming req see
system.mem_ctrls.wrQLenPdf::51                      0                       # What write queue length does an incoming req see
system.mem_ctrls.wrQLenPdf::52                      0                       # What write queue length does an incoming req see
system.mem_ctrls.wrQLenPdf::53                      0                       # What write queue length does an incoming req see
system.mem_ctrls.wrQLenPdf::54                      0                       # What write queue length does an incoming req see
system.mem_ctrls.wrQLenPdf::55                      0                       # What write queue length does an incoming req see
system.mem_ctrls.wrQLenPdf::56                      0                       # What write queue length does an incoming req see
system.mem_ctrls.wrQLenPdf::57                      0                       # What write queue length does an incoming req see
system.mem_ctrls.wrQLenPdf::58                      0                       # What write queue length does an incoming req see
system.mem_ctrls.wrQLenPdf::59                      0                       # What write queue length does an incoming req see
system.mem_ctrls.wrQLenPdf::60                      0                       # What write queue length does an incoming req see
system.mem_ctrls.wrQLenPdf::61                      0                       # What write queue length does an incoming req see
system.mem_ctrls.wrQLenPdf::62                      0                       # What write queue length does an incoming req see
system.mem_ctrls.wrQLenPdf::63                      0                       # What write queue length does an incoming req see
system.mem_ctrls.rdPerTurnAround::samples         6871                       # Reads before turning the bus around for writes
system.mem_ctrls.rdPerTurnAround::mean      24.456993                       # Reads before turning the bus around for writes
system.mem_ctrls.rdPerTurnAround::gmean     19.858668                       # Reads before turning the bus around for writes
system.mem_ctrls.rdPerTurnAround::stdev     74.675854                       # Reads before turning the bus around for writes
system.mem_ctrls.rdPerTurnAround::0-255          6761     98.40%     98.40% # Reads before turning the bus around for writes
system.mem_ctrls.rdPerTurnAround::256-511          107      1.56%     99.96% # Reads before turning the bus around for writes
system.mem_ctrls.rdPerTurnAround::512-767            1      0.01%     99.97% # Reads before turning the bus around for writes
system.mem_ctrls.rdPerTurnAround::768-1023            1      0.01%     99.99% # Reads before turning the bus around for writes
system.mem_ctrls.rdPerTurnAround::5376-5631            1      0.01%    100.00% # Reads before turning the bus around for writes
system.mem_ctrls.rdPerTurnAround::total          6871                       # Reads before turning the bus around for writes
system.mem_ctrls.wrPerTurnAround::samples         6871                       # Writes before turning the bus around for reads
system.mem_ctrls.wrPerTurnAround::mean      17.457721                       # Writes before turning the bus around for reads
system.mem_ctrls.wrPerTurnAround::gmean     17.434368                       # Writes before turning the bus around for reads
system.mem_ctrls.wrPerTurnAround::stdev      0.887358                       # Writes before turning the bus around for reads
[...]
system.mem_ctrls.dram.bw_total::.cpu.data     17403554                       # Total bandwidth to/from this memory (bytes/s)
system.mem_ctrls.dram.bw_total::total        29998623                       # Total bandwidth to/from this memory (bytes/s)
system.mem_ctrls.dram.readBursts               168045                       # Number of DRAM read bursts
system.mem_ctrls.dram.writeBursts              119952                       # Number of DRAM write bursts
system.mem_ctrls.dram.perBankRdBursts::0        11754                       # Per bank write bursts
system.mem_ctrls.dram.perBankRdBursts::1        10864                       # Per bank write bursts
system.mem_ctrls.dram.perBankRdBursts::2         9881                       # Per bank write bursts
system.mem_ctrls.dram.perBankRdBursts::3         9966                       # Per bank write bursts
system.mem_ctrls.dram.perBankRdBursts::4         9954                       # Per bank write bursts
system.mem_ctrls.dram.perBankRdBursts::5         9894                       # Per bank write bursts
system.mem_ctrls.dram.perBankRdBursts::6        10426                       # Per bank write bursts
system.mem_ctrls.dram.perBankRdBursts::7        10424                       # Per bank write bursts
system.mem_ctrls.dram.perBankRdBursts::8        10057                       # Per bank write bursts
system.mem_ctrls.dram.perBankRdBursts::9        11015                       # Per bank write bursts
system.mem_ctrls.dram.perBankRdBursts::10        10585                       # Per bank write bursts
system.mem_ctrls.dram.perBankRdBursts::11         9466                       # Per bank write bursts
system.mem_ctrls.dram.perBankRdBursts::12         9876                       # Per bank write bursts
system.mem_ctrls.dram.perBankRdBursts::13        10724                       # Per bank write bursts
system.mem_ctrls.dram.perBankRdBursts::14        11189                       # Per bank write bursts
system.mem_ctrls.dram.perBankRdBursts::15        11970                       # Per bank write bursts
system.mem_ctrls.dram.perBankWrBursts::0         8822                       # Per bank write bursts
system.mem_ctrls.dram.perBankWrBursts::1         7895                       # Per bank write bursts
system.mem_ctrls.dram.perBankWrBursts::2         6907                       # Per bank write bursts
system.mem_ctrls.dram.perBankWrBursts::3         7091                       # Per bank write bursts
system.mem_ctrls.dram.perBankWrBursts::4         7095                       # Per bank write bursts
system.mem_ctrls.dram.perBankWrBursts::5         6958                       # Per bank write bursts
system.mem_ctrls.dram.perBankWrBursts::6         7464                       # Per bank write bursts
system.mem_ctrls.dram.perBankWrBursts::7         7438                       # Per bank write bursts
system.mem_ctrls.dram.perBankWrBursts::8         7004                       # Per bank write bursts
system.mem_ctrls.dram.perBankWrBursts::9         7944                       # Per bank write bursts
system.mem_ctrls.dram.perBankWrBursts::10         7565                       # Per bank write bursts
system.mem_ctrls.dram.perBankWrBursts::11         6399                       # Per bank write bursts
system.mem_ctrls.dram.perBankWrBursts::12         6802                       # Per bank write bursts
system.mem_ctrls.dram.perBankWrBursts::13         7577                       # Per bank write bursts
system.mem_ctrls.dram.perBankWrBursts::14         8068                       # Per bank write bursts
system.mem_ctrls.dram.perBankWrBursts::15         8923                       # Per bank write bursts
system.mem_ctrls.dram.totQLat              2755898250                       # Total ticks spent queuing
system.mem_ctrls.dram.totBusLat             840225000                       # Total ticks spent in databus transfers
system.mem_ctrls.dram.totMemAccLat         5906742000                       # Total ticks spent from burst creation until serviced by the DRAM
system.mem_ctrls.dram.avgQLat                16399.76                       # Average queueing delay per DRAM burst
system.mem_ctrls.dram.avgBusLat               5000.00                       # Average bus latency per DRAM burst
system.mem_ctrls.dram.avgMemAccLat           35149.76                       # Average memory access latency per DRAM burst
system.mem_ctrls.dram.readRowHits               74916                       # Number of row buffer hits during reads
system.mem_ctrls.dram.writeRowHits              50399                       # Number of row buffer hits during writes
system.mem_ctrls.dram.readRowHitRate            44.58                       # Row buffer hit rate for reads
system.mem_ctrls.dram.writeRowHitRate           42.02                       # Row buffer hit rate for writes
system.mem_ctrls.dram.bytesPerActivate::samples       162682                       # Bytes accessed per row activation
system.mem_ctrls.dram.bytesPerActivate::mean   113.299615                       # Bytes accessed per row activation
system.mem_ctrls.dram.bytesPerActivate::gmean    84.127422                       # Bytes accessed per row activation
system.mem_ctrls.dram.bytesPerActivate::stdev   152.982541                       # Bytes accessed per row activation
system.mem_ctrls.dram.bytesPerActivate::0-127       125518     77.16%     77.16% # Bytes accessed per row activation
system.mem_ctrls.dram.bytesPerActivate::128-255        25037     15.39%     92.55% # Bytes accessed per row activation
system.mem_ctrls.dram.bytesPerActivate::256-383         3723      2.29%     94.83% # Bytes accessed per row activation
system.mem_ctrls.dram.bytesPerActivate::384-511         1937      1.19%     96.02% # Bytes accessed per row activation
system.mem_ctrls.dram.bytesPerActivate::512-639         2788      1.71%     97.74% # Bytes accessed per row activation
system.mem_ctrls.dram.bytesPerActivate::640-767          275      0.17%     97.91% # Bytes accessed per row activation
system.mem_ctrls.dram.bytesPerActivate::768-895          319      0.20%     98.10% # Bytes accessed per row activation
system.mem_ctrls.dram.bytesPerActivate::896-1023          410      0.25%     98.36% # Bytes accessed per row activation
system.mem_ctrls.dram.bytesPerActivate::1024-1151         2675      1.64%    100.00% # Bytes accessed per row activation
system.mem_ctrls.dram.bytesPerActivate::total       162682                       # Bytes accessed per row activation
system.mem_ctrls.dram.bytesRead              10754880                       # Total number of bytes read from DRAM
system.mem_ctrls.dram.bytesWritten            7676928                       # Total number of bytes written to DRAM
system.mem_ctrls.dram.avgRdBW               17.482517                       # Average DRAM read bandwidth in MiBytes/s
system.mem_ctrls.dram.avgWrBW               12.479174                       # Average DRAM write bandwidth in MiBytes/s
system.mem_ctrls.dram.peakBW                 12800.00                       # Theoretical peak bandwidth in MiByte/s
system.mem_ctrls.dram.busUtil                    0.23                       # Data bus utilization in percentage
system.mem_ctrls.dram.busUtilRead                0.14                       # Data bus utilization in percentage for reads
system.mem_ctrls.dram.busUtilWrite               0.10                       # Data bus utilization in percentage for writes
system.mem_ctrls.dram.pageHitRate               43.51                       # Row buffer hit rate, read and write combined
system.mem_ctrls.dram.power_state.pwrStateResidencyTicks::UNDEFINED 615179165500                       # Cumulative time (in ticks) in various power states
system.mem_ctrls.dram.rank0.actEnergy       579732300                       # Energy for activate commands per rank (pJ)
system.mem_ctrls.dram.rank0.preEnergy       308135025                       # Energy for precharge commands per rank (pJ)
system.mem_ctrls.dram.rank0.readEnergy      593783820                       # Energy for read commands per rank (pJ)
system.mem_ctrls.dram.rank0.writeEnergy     311477400                       # Energy for write commands per rank (pJ)
system.mem_ctrls.dram.rank0.refreshEnergy 48561477120.000008                       # Energy for refresh commands per rank (pJ)
system.mem_ctrls.dram.rank0.actBackEnergy  33501924990                       # Energy for active background per rank (pJ)
system.mem_ctrls.dram.rank0.preBackEnergy 208016652480                       # Energy for precharge background per rank (pJ)
system.mem_ctrls.dram.rank0.actPowerDownEnergy            0                       # Energy for active power-down per rank (pJ)
system.mem_ctrls.dram.rank0.prePowerDownEnergy            0                       # Energy for precharge power-down per rank (pJ)
system.mem_ctrls.dram.rank0.selfRefreshEnergy            0                       # Energy for self refresh per rank (pJ)
system.mem_ctrls.dram.rank0.totalEnergy  291873183135                       # Total energy per rank (pJ)
system.mem_ctrls.dram.rank0.averagePower   474.452321                       # Core power per rank (mW)
system.mem_ctrls.dram.rank0.totalIdleTime            0                       # Total Idle time Per DRAM Rank
system.mem_ctrls.dram.rank0.pwrStateTime::IDLE 540447661000                       # Time in different power states
system.mem_ctrls.dram.rank0.pwrStateTime::REF  20542080000                       # Time in different power states
system.mem_ctrls.dram.rank0.pwrStateTime::SREF            0                       # Time in different power states
system.mem_ctrls.dram.rank0.pwrStateTime::PRE_PDN            0                       # Time in different power states
system.mem_ctrls.dram.rank0.pwrStateTime::ACT  54189424500                       # Time in different power states
system.mem_ctrls.dram.rank0.pwrStateTime::ACT_PDN            0                       # Time in different power states
system.mem_ctrls.dram.rank1.actEnergy       581817180                       # Energy for activate commands per rank (pJ)
system.mem_ctrls.dram.rank1.preEnergy       309243165                       # Energy for precharge commands per rank (pJ)
system.mem_ctrls.dram.rank1.readEnergy      606057480                       # Energy for read commands per rank (pJ)
system.mem_ctrls.dram.rank1.writeEnergy     314672040                       # Energy for write commands per rank (pJ)
system.mem_ctrls.dram.rank1.refreshEnergy 48561477120.000008                       # Energy for refresh commands per rank (pJ)
system.mem_ctrls.dram.rank1.actBackEnergy  34470761400                       # Energy for active background per rank (pJ)
system.mem_ctrls.dram.rank1.preBackEnergy 207200790240                       # Energy for precharge background per rank (pJ)
system.mem_ctrls.dram.rank1.actPowerDownEnergy            0                       # Energy for active power-down per rank (pJ)
system.mem_ctrls.dram.rank1.prePowerDownEnergy            0                       # Energy for precharge power-down per rank (pJ)
system.mem_ctrls.dram.rank1.selfRefreshEnergy            0                       # Energy for self refresh per rank (pJ)
system.mem_ctrls.dram.rank1.totalEnergy  292044818625                       # Total energy per rank (pJ)
system.mem_ctrls.dram.rank1.averagePower   474.731322                       # Core power per rank (mW)
system.mem_ctrls.dram.rank1.totalIdleTime            0                       # Total Idle time Per DRAM Rank
system.mem_ctrls.dram.rank1.pwrStateTime::IDLE 538313309750                       # Time in different power states
system.mem_ctrls.dram.rank1.pwrStateTime::REF  20542080000                       # Time in different power states
system.mem_ctrls.dram.rank1.pwrStateTime::SREF            0                       # Time in different power states
system.mem_ctrls.dram.rank1.pwrStateTime::PRE_PDN            0                       # Time in different power states
system.mem_ctrls.dram.rank1.pwrStateTime::ACT  56323775750                       # Time in different power states
system.mem_ctrls.dram.rank1.pwrStateTime::ACT_PDN            0                       # Time in different power states
system.mem_ctrls.power_state.pwrStateResidencyTicks::UNDEFINED 615179165500                       # Cumulative time (in ticks) in various power states
system.membus.trans_dist::ReadResp              36737                       # Transaction distribution
system.membus.trans_dist::WritebackDirty       119968                       # Transaction distribution
system.membus.trans_dist::CleanEvict            15193                       # Transaction distribution
system.membus.trans_dist::ReadExReq            131647                       # Transaction distribution
system.membus.trans_dist::ReadExResp           131647                       # Transaction distribution
system.membus.trans_dist::ReadSharedReq         36737                       # Transaction distribution
system.membus.pkt_count_system.l2.mem_side_port::system.mem_ctrls.port       471929                       # Packet count per connected requestor and responder (bytes)
system.membus.pkt_count_system.l2.mem_side_port::total       471929                       # Packet count per connected requestor and responder (bytes)
system.membus.pkt_count::total                 471929                       # Packet count per connected requestor and responder (bytes)
system.membus.pkt_size_system.l2.mem_side_port::system.mem_ctrls.port     18454528                       # Cumulative packet size per connected requestor and responder (bytes)
system.membus.pkt_size_system.l2.mem_side_port::total     18454528                       # Cumulative packet size per connected requestor and responder (bytes)
system.membus.pkt_size::total                18454528                       # Cumulative packet size per connected requestor and responder (bytes)
system.membus.snoops                                0                       # Total snoops (count)
system.membus.snoopTraffic                          0                       # Total snoop traffic (bytes)
system.membus.snoop_fanout::samples            168384                       # Request fanout histogram
system.membus.snoop_fanout::mean                    0                       # Request fanout histogram
system.membus.snoop_fanout::stdev                   0                       # Request fanout histogram
system.membus.snoop_fanout::underflows              0      0.00%      0.00% # Request fanout histogram
system.membus.snoop_fanout::0                  168384    100.00%    100.00% # Request fanout histogram
system.membus.snoop_fanout::1                       0      0.00%    100.00% # Request fanout histogram
system.membus.snoop_fanout::overflows               0      0.00%    100.00% # Request fanout histogram
system.membus.snoop_fanout::min_value               0                       # Request fanout histogram
system.membus.snoop_fanout::max_value               0                       # Request fanout histogram
system.membus.snoop_fanout::total              168384                       # Request fanout histogram
system.membus.power_state.pwrStateResidencyTicks::UNDEFINED 615179165500                       # Cumulative time (in ticks) in various power states
system.membus.reqLayer2.occupancy           797670500                       # Layer occupancy (ticks)
system.membus.reqLayer2.utilization               0.1                       # Layer utilization (%)
system.membus.respLayer1.occupancy          914837750                       # Layer occupancy (ticks)
system.membus.respLayer1.utilization              0.1                       # Layer utilization (%)
system.tol2bus.trans_dist::ReadResp           3661725                       # Transaction distribution
system.tol2bus.trans_dist::WritebackDirty      1602935                       # Transaction distribution
system.tol2bus.trans_dist::WritebackClean          709                       # Transaction distribution
system.tol2bus.trans_dist::CleanEvict         2749990                       # Transaction distribution
system.tol2bus.trans_dist::ReadExReq           557159                       # Transaction distribution
system.tol2bus.trans_dist::ReadExResp          557159                       # Transaction distribution
system.tol2bus.trans_dist::ReadCleanReq          1200                       # Transaction distribution
system.tol2bus.trans_dist::ReadSharedReq      3660525                       # Transaction distribution
system.tol2bus.pkt_count_system.cpu.icache.mem_side_port::system.l2.cpu_side_port         3109                       # Packet count per connected requestor and responder (bytes)
system.tol2bus.pkt_count_system.cpu.dcache.mem_side_port::system.l2.cpu_side_port     12652540                       # Packet count per connected requestor and responder (bytes)
system.tol2bus.pkt_count::total              12655649                       # Packet count per connected requestor and responder (bytes)
system.tol2bus.pkt_size_system.cpu.icache.mem_side_port::system.l2.cpu_side_port       122176                       # Cumulative packet size per connected requestor and responder (bytes)
system.tol2bus.pkt_size_system.cpu.dcache.mem_side_port::system.l2.cpu_side_port    364841664                       # Cumulative packet size per connected requestor and responder (bytes)
system.tol2bus.pkt_size::total              364963840                       # Cumulative packet size per connected requestor and responder (bytes)
system.tol2bus.snoops                          135753                       # Total snoops (count)
system.tol2bus.snoopTraffic                   7677952                       # Total snoop traffic (bytes)
system.tol2bus.snoop_fanout::samples          4354637                       # Request fanout histogram
system.tol2bus.snoop_fanout::mean            0.000136                       # Request fanout histogram
system.tol2bus.snoop_fanout::stdev           0.011669                       # Request fanout histogram
system.tol2bus.snoop_fanout::underflows             0      0.00%      0.00% # Request fanout histogram
system.tol2bus.snoop_fanout::0                4354044     99.99%     99.99% # Request fanout histogram
system.tol2bus.snoop_fanout::1                    593      0.01%    100.00% # Request fanout histogram
system.tol2bus.snoop_fanout::2                      0      0.00%    100.00% # Request fanout histogram
system.tol2bus.snoop_fanout::3                      0      0.00%    100.00% # Request fanout histogram
system.tol2bus.snoop_fanout::4                      0      0.00%    100.00% # Request fanout histogram
system.tol2bus.snoop_fanout::overflows              0      0.00%    100.00% # Request fanout histogram
system.tol2bus.snoop_fanout::min_value              0                       # Request fanout histogram
system.tol2bus.snoop_fanout::max_value              1                       # Request fanout histogram
system.tol2bus.snoop_fanout::total            4354637                       # Request fanout histogram
system.tol2bus.power_state.pwrStateResidencyTicks::UNDEFINED 615179165500                       # Cumulative time (in ticks) in various power states
system.tol2bus.reqLayer0.occupancy         5702058500                       # Layer occupancy (ticks)
system.tol2bus.reqLayer0.utilization              0.9                       # Layer utilization (%)
system.tol2bus.respLayer0.occupancy           1800000                       # Layer occupancy (ticks)
system.tol2bus.respLayer0.utilization             0.0                       # Layer utilization (%)
system.tol2bus.respLayer1.occupancy        6326526000                       # Layer occupancy (ticks)
system.tol2bus.respLayer1.utilization             1.0                       # Layer utilization (%)
system.voltage_domain.voltage                       1                       # Voltage in Volts

---------- End Simulation Statistics   ----------
